Version 4
SHEET 1 1764 680
WIRE 480 -368 432 -368
WIRE 208 -352 160 -352
WIRE 304 -352 272 -352
WIRE 1216 -320 1040 -320
WIRE 1328 -320 1216 -320
WIRE 1392 -320 1328 -320
WIRE 480 -288 368 -288
WIRE 432 -272 432 -368
WIRE 432 -272 336 -272
WIRE 1040 -272 1040 -320
WIRE 1088 -272 1040 -272
WIRE 1600 -272 1216 -272
WIRE 1040 -256 1040 -272
WIRE 160 -240 160 -352
WIRE 192 -240 160 -240
WIRE 304 -240 304 -352
WIRE 304 -240 272 -240
WIRE 560 -240 304 -240
WIRE 1088 -240 1088 -272
WIRE 432 -224 432 -272
WIRE 1216 -224 1216 -272
WIRE -144 -176 -192 -176
WIRE -16 -176 -64 -176
WIRE 48 -176 -16 -176
WIRE 80 -176 48 -176
WIRE 160 -176 160 -240
WIRE 400 -176 160 -176
WIRE 560 -176 560 -240
WIRE 560 -176 544 -176
WIRE 672 -176 560 -176
WIRE 768 -176 672 -176
WIRE 880 -176 768 -176
WIRE 1040 -176 960 -176
WIRE 1088 -176 1040 -176
WIRE 1184 -176 1088 -176
WIRE 1328 -144 1328 -320
WIRE 400 -112 160 -112
WIRE 608 -112 560 -112
WIRE 672 -112 608 -112
WIRE 768 -112 672 -112
WIRE 880 -112 768 -112
WIRE 1040 -112 960 -112
WIRE 1088 -112 1040 -112
WIRE 1184 -112 1088 -112
WIRE -192 -96 -192 -176
WIRE -16 -96 -192 -96
WIRE 1600 -80 1600 -272
WIRE 1600 -80 1552 -80
WIRE 1600 -48 1600 -80
WIRE -192 -32 -192 -96
WIRE -144 -32 -192 -32
WIRE -16 -32 -64 -32
WIRE 48 -32 -16 -32
WIRE 64 -32 48 -32
WIRE 160 -32 160 -112
WIRE 160 -32 144 -32
WIRE 256 -32 240 -32
WIRE 288 -32 256 -32
WIRE 336 -32 336 -272
WIRE 464 -32 464 -64
WIRE 464 -32 336 -32
WIRE 1040 -16 1040 -32
WIRE 1088 -16 1088 -48
WIRE 1088 -16 1040 -16
WIRE 976 0 912 0
WIRE 1216 0 1216 -64
WIRE 1216 0 976 0
WIRE 1344 0 1216 0
WIRE 1472 0 1344 0
WIRE 288 16 288 -32
WIRE 608 16 608 -112
WIRE 608 16 288 16
WIRE 1344 32 1344 0
WIRE -192 64 -192 -32
WIRE -16 64 -16 48
WIRE -16 64 -192 64
WIRE 160 64 160 -32
WIRE 256 64 256 -32
WIRE 256 64 224 64
WIRE 1216 64 1216 0
WIRE 976 80 976 0
WIRE -16 96 -16 64
WIRE 368 96 368 -288
WIRE 368 96 -16 96
WIRE 432 96 432 -64
WIRE 432 96 368 96
WIRE 912 96 912 0
WIRE 912 96 432 96
WIRE 1344 112 1248 112
WIRE 1472 112 1472 0
WIRE 1600 112 1600 32
WIRE 1600 112 1472 112
WIRE 432 128 432 96
WIRE 1040 144 1040 -16
WIRE 1040 144 976 144
WIRE 1104 144 1040 144
WIRE 1296 176 1248 176
WIRE 1040 240 1040 144
WIRE 1296 240 1296 176
WIRE 1296 240 1040 240
WIRE 1216 272 1216 224
WIRE 1344 272 1344 192
WIRE 1344 272 1216 272
WIRE 1552 272 1552 -80
WIRE 1552 272 1344 272
FLAG 48 -176 InP
FLAG 48 -32 InN
FLAG 432 128 0
FLAG 672 -176 OUT+
FLAG 672 -112 OUT-
FLAG 1216 -320 OUT
FLAG 768 -32 0
FLAG 768 -256 0
SYMBOL current -144 -176 R270
WINDOW 0 32 40 VTop 2
WINDOW 3 -32 40 Invisible 2
WINDOW 123 4 40 VTop 2
WINDOW 39 0 0 Left 2
SYMATTR InstName I1
SYMATTR Value SINE(0.002 0.002 {freq} 0 0 0)
SYMATTR Value2 AC 0.002 0
SYMBOL current -144 -32 R270
WINDOW 0 32 40 VTop 2
WINDOW 3 -32 40 Invisible 2
WINDOW 123 4 40 VTop 2
WINDOW 39 0 0 Left 2
SYMATTR InstName I2
SYMATTR Value SINE(0.002 0.002 {freq} 0 0 180)
SYMATTR Value2 AC 0.002 180
SYMBOL res 288 -256 R90
WINDOW 0 0 56 VBottom 2
WINDOW 3 32 56 VTop 2
SYMATTR InstName R7
SYMATTR Value 500
SYMBOL voltage 480 -384 R0
WINDOW 123 0 0 Left 2
WINDOW 39 24 124 Left 2
SYMATTR InstName V1
SYMATTR Value 3.3
SYMBOL Opamps\\LTC6409 464 -144 R0
SYMATTR InstName U1
SYMBOL res 176 -192 R90
WINDOW 0 0 56 VBottom 2
WINDOW 3 32 56 VTop 2
SYMATTR InstName R4
SYMATTR Value 100
SYMBOL res -32 -192 R0
SYMATTR InstName R2
SYMATTR Value 100
SYMBOL res -32 -48 R0
SYMATTR InstName R8
SYMATTR Value 100
SYMBOL res 160 -48 R90
WINDOW 0 0 56 VBottom 2
WINDOW 3 32 56 VTop 2
SYMATTR InstName R9
SYMATTR Value 100
SYMBOL res 256 -48 R90
WINDOW 0 0 56 VBottom 2
WINDOW 3 32 56 VTop 2
SYMATTR InstName R1
SYMATTR Value 500
SYMBOL cap 272 -368 R90
WINDOW 0 0 32 VBottom 2
WINDOW 3 32 32 VTop 2
SYMATTR InstName C1
SYMATTR Value 0.8p
SYMBOL cap 224 48 R90
WINDOW 0 0 32 VBottom 2
WINDOW 3 32 32 VTop 2
SYMATTR InstName C2
SYMATTR Value 0.8p
SYMBOL res 1328 16 R0
SYMATTR InstName R11
SYMATTR Value 10k
SYMBOL res 1328 96 R0
SYMATTR InstName R12
SYMATTR Value 10k
SYMBOL Opamps\\LTC6269 1216 -144 R0
SYMATTR InstName U2
SYMBOL Opamps\\LTC6269 1216 144 R180
SYMATTR InstName U3
SYMBOL voltage 1600 -64 R0
WINDOW 123 0 0 Left 2
WINDOW 39 0 0 Left 2
SYMATTR InstName V2
SYMATTR Value 3.3
SYMBOL res 976 -192 R90
WINDOW 0 0 56 VBottom 2
WINDOW 3 32 56 VTop 2
SYMATTR InstName R3
SYMATTR Value 1k
SYMBOL res 976 -128 R90
WINDOW 0 0 56 VBottom 2
WINDOW 3 32 56 VTop 2
SYMATTR InstName R5
SYMATTR Value 1k
SYMBOL res 1056 -160 R180
WINDOW 0 36 76 Left 2
WINDOW 3 36 40 Left 2
SYMATTR InstName R6
SYMATTR Value 1.5k
SYMBOL res 1056 -16 R180
WINDOW 0 36 76 Left 2
WINDOW 3 36 40 Left 2
SYMATTR InstName R10
SYMATTR Value 1.5k
SYMBOL cap 960 80 R0
SYMATTR InstName C5
SYMATTR Value 10µ
SYMBOL cap 1072 -240 R0
SYMATTR InstName C4
SYMATTR Value 2.8p
SYMBOL cap 1072 -112 R0
SYMATTR InstName C6
SYMATTR Value 2.8p
SYMBOL res 752 -272 R0
SYMATTR InstName R13
SYMATTR Value 50
SYMBOL res 752 -128 R0
SYMATTR InstName R14
SYMATTR Value 50
TEXT -256 -432 Left 2 !;.step dec param freq 1meg 100meg 1
TEXT -256 -352 Left 2 !;.ac dec 10 1k 200meg
TEXT -256 -408 Left 2 !.tran 5000n
TEXT -248 -456 Left 2 !.param freq = 10meg
TEXT -256 280 Left 2 !;.op
