Version 4
SHEET 1 1180 680
WIRE 480 -368 432 -368
WIRE 208 -352 160 -352
WIRE 304 -352 272 -352
WIRE 672 -320 560 -320
WIRE 752 -320 672 -320
WIRE 752 -304 752 -320
WIRE 432 -272 432 -368
WIRE 432 -272 336 -272
WIRE 160 -240 160 -352
WIRE 192 -240 160 -240
WIRE 304 -240 304 -352
WIRE 304 -240 272 -240
WIRE 560 -240 560 -320
WIRE 560 -240 304 -240
WIRE 432 -224 432 -272
WIRE 672 -224 608 -224
WIRE 752 -224 672 -224
WIRE -16 -176 -64 -176
WIRE 48 -176 -16 -176
WIRE 80 -176 48 -176
WIRE 160 -176 160 -240
WIRE 400 -176 160 -176
WIRE 560 -176 560 -240
WIRE 400 -112 160 -112
WIRE 608 -112 608 -224
WIRE 608 -112 560 -112
WIRE -144 -96 -144 -176
WIRE -16 -96 -144 -96
WIRE -144 -32 -144 -96
WIRE -16 -32 -64 -32
WIRE 48 -32 -16 -32
WIRE 64 -32 48 -32
WIRE 160 -32 160 -112
WIRE 160 -32 144 -32
WIRE 256 -32 240 -32
WIRE 288 -32 256 -32
WIRE 336 -32 336 -272
WIRE 464 -32 464 -64
WIRE 464 -32 336 -32
WIRE 288 16 288 -32
WIRE 608 16 608 -112
WIRE 608 16 288 16
WIRE 160 64 160 -32
WIRE 256 64 256 -32
WIRE 256 64 224 64
WIRE -144 80 -144 -32
WIRE -16 80 -16 48
WIRE -16 80 -144 80
WIRE 432 80 432 -64
WIRE 432 80 -16 80
WIRE -144 96 -144 80
FLAG -144 96 0
FLAG 48 -176 InP
FLAG 48 -32 InN
FLAG 672 -320 OUTN
FLAG 672 -224 OUTP
FLAG 480 -288 0
SYMBOL current -144 -176 R270
WINDOW 0 32 40 VTop 2
WINDOW 3 -32 40 Invisible 2
WINDOW 123 4 40 VTop 2
WINDOW 39 0 0 Left 2
SYMATTR InstName I1
SYMATTR Value PULSE(0.000 0.004 0 0 0 {1/{4*{freq}}} {1/{freq}})
SYMATTR Value2 AC 1 0
SYMBOL current -144 -32 R270
WINDOW 0 32 40 VTop 2
WINDOW 3 -32 40 Invisible 2
WINDOW 123 4 40 VTop 2
WINDOW 39 0 0 Left 2
SYMATTR InstName I2
SYMATTR Value PULSE(0.004 0.000 0 0 0 {1/{4*{freq}}} {1/{freq}})
SYMATTR Value2 AC 1 180
SYMBOL res 288 -256 R90
WINDOW 0 0 56 VBottom 2
WINDOW 3 32 56 VTop 2
SYMATTR InstName R7
SYMATTR Value 470
SYMBOL voltage 480 -384 R0
WINDOW 123 0 0 Left 2
WINDOW 39 24 124 Left 2
SYMATTR InstName V1
SYMATTR Value 3.3
SYMBOL Opamps\\LTC6409 464 -144 R0
SYMATTR InstName U1
SYMBOL res 176 -192 R90
WINDOW 0 0 56 VBottom 2
WINDOW 3 32 56 VTop 2
SYMATTR InstName R4
SYMATTR Value 100
SYMBOL res -32 -192 R0
SYMATTR InstName R2
SYMATTR Value 100
SYMBOL res -32 -48 R0
SYMATTR InstName R8
SYMATTR Value 100
SYMBOL res 160 -48 R90
WINDOW 0 0 56 VBottom 2
WINDOW 3 32 56 VTop 2
SYMATTR InstName R9
SYMATTR Value 100
SYMBOL res 256 -48 R90
WINDOW 0 0 56 VBottom 2
WINDOW 3 32 56 VTop 2
SYMATTR InstName R1
SYMATTR Value 470
SYMBOL cap 272 -368 R90
WINDOW 0 0 32 VBottom 2
WINDOW 3 32 32 VTop 2
SYMATTR InstName C1
SYMATTR Value 0.8p
SYMBOL cap 224 48 R90
WINDOW 0 0 32 VBottom 2
WINDOW 3 32 32 VTop 2
SYMATTR InstName C2
SYMATTR Value 0.8p
TEXT 8 -424 Left 2 !.param freq = 1meg
TEXT 728 -144 Left 2 !.meas TRAN Vopp PP V(outp)-V(outn)
TEXT -164 120 Left 2 !.tran 10u
